8
 CH3NH3+ not eclipsed E(PBE/Def2-TZVP)=-2615.52999 eV
 C   -0.804626    0.000041   -0.004826
 N    0.705687    0.000035   -0.002693
 H   -1.151042    0.000715    1.033082
 H   -1.149366    0.899214   -0.525098
 H   -1.149374   -0.899804   -0.523929
 H    1.082436   -0.830806    0.478389
 H    1.082445    0.831450    0.477387
 H    1.085040   -0.000545   -0.961412
